
          11280714492D 1   1.00000     0.00000     0

 16 17  0     0  0            999 V2000
    5.1542   -4.9500    0.0000 N   0  0  3  0  0  0           0  0  0
    5.8042   -4.5625    0.0000 C   0  0  0  0  0  0           0  0  0
    5.8042   -3.8000    0.0000 N   0  0  0  0  0  0           0  0  0
    4.4917   -4.5667    0.0000 C   0  0  0  0  0  0           0  0  0
    4.4917   -3.8125    0.0000 C   0  0  0  0  0  0           0  0  0
    5.1417   -3.4292    0.0000 C   0  0  0  0  0  0           0  0  0
    5.1625   -5.7042    0.0000 C   0  0  3  0  0  0           0  0  0
    4.1875   -5.2375    0.0000 O   0  0  0  0  0  0           0  0  0
    6.4667   -4.9375    0.0000 O   0  0  0  0  0  0           0  0  0
    5.1417   -2.6667    0.0000 O   0  0  0  0  0  0           0  0  0
    4.7917   -6.4667    0.0000 C   0  0  0  0  0  0           0  0  0
    3.2125   -5.7042    0.0000 C   0  0  3  0  0  0           0  0  0
    3.8375   -3.4375    0.0000 C   0  0  0  0  0  0           0  0  0
    3.5792   -6.4667    0.0000 C   0  0  0  0  0  0           0  0  0
    2.4417   -4.9500    0.0000 O   0  0  0  0  0  0           0  0  0
    3.2042   -4.9500    0.0000 C   0  0  0  0  0  0           0  0  0
  2  1  1  0     0  0
  3  2  1  0     0  0
  4  1  1  0     0  0
  5  4  2  0     0  0
  6  5  1  0     0  0
  7  1  1  0     0  0
  8  7  1  0     0  0
  9  2  2  0     0  0
 10  6  2  0     0  0
 11  7  1  0     0  0
 12  8  1  0     0  0
 13  5  1  0     0  0
 14 11  1  0     0  0
 15 16  1  0     0  0
 16 12  1  0     0  0
 14 12  1  0     0  0
  6  3  1  0     0  0
M  END