
  CDK    6/4/10,11:42

 16 17  0  0  0  0  0  0  0  0999 V2000
   -3.8980  -14.1924    0.0000 C   0  0  0  0  0  0  0  0  0  0  0  0
   -3.1832  -14.6053    0.0000 N   0  0  0  0  0  0  0  0  0  0  0  0
   -2.4669  -14.1919    0.0000 C   0  0  0  0  0  0  0  0  0  0  0  0
   -2.4697  -13.3615    0.0000 N   0  0  0  0  0  0  0  0  0  0  0  0
   -3.8969  -13.3651    0.0000 C   0  0  0  0  0  0  0  0  0  0  0  0
   -3.1829  -12.9516    0.0000 C   0  0  0  0  0  0  0  0  0  0  0  0
   -1.7518  -14.6033    0.0000 O   0  0  0  0  0  0  0  0  0  0  0  0
   -3.1834  -15.4302    0.0000 C   0  0  0  0  0  0  0  0  0  0  0  0
   -3.8496  -15.9175    0.0000 O   0  0  0  0  0  0  0  0  0  0  0  0
   -3.5949  -16.7021    0.0000 C   0  0  0  0  0  0  0  0  0  0  0  0
   -2.7699  -16.7023    0.0000 C   0  0  0  0  0  0  0  0  0  0  0  0
   -2.5149  -15.9178    0.0000 C   0  0  0  0  0  0  0  0  0  0  0  0
   -4.0798  -17.3693    0.0000 C   0  0  0  0  0  0  0  0  0  0  0  0
   -4.9002  -17.2830    0.0000 O   0  0  0  0  0  0  0  0  0  0  0  0
   -4.6112  -12.9526    0.0000 C   0  0  0  0  0  0  0  0  0  0  0  0
   -3.1843  -12.1267    0.0000 O   0  0  0  0  0  0  0  0  0  0  0  0
  8  2  1  1  0  0  0 
  8  9  1  0  0  0  0 
  3  4  1  0  0  0  0 
  4  6  1  0  0  0  0 
  5  6  1  0  0  0  0 
  1  2  1  0  0  0  0 
  9 10  1  0  0  0  0 
 10 11  1  0  0  0  0 
 11 12  1  0  0  0  0 
 12  8  1  0  0  0  0 
  5  1  2  0  0  0  0 
 10 13  1  1  0  0  0 
  2  3  1  0  0  0  0 
 13 14  1  0  0  0  0 
  3  7  2  0  0  0  0 
  5 15  1  0  0  0  0 
  6 16  2  0  0  0  0 
M  END